52952025
  -OEChem-12212305023D

 79 80  0     1  0  0  0  0  0999 V2000
   -4.9000   -1.2074    2.0621 O   0  0  0  0  0  0  0  0  0  0  0  0
    3.2283   -0.4186   -0.7327 O   0  0  0  0  0  0  0  0  0  0  0  0
    2.3155   -0.3808    1.4531 O   0  0  0  0  0  0  0  0  0  0  0  0
    3.9568    1.9551    1.8912 O   0  0  0  0  0  0  0  0  0  0  0  0
   -2.1163   -2.5713    1.5897 O   0  0  0  0  0  0  0  0  0  0  0  0
    6.4050   -3.0722   -1.5589 O   0  0  0  0  0  0  0  0  0  0  0  0
    4.8659   -2.9280    0.1118 O   0  0  0  0  0  0  0  0  0  0  0  0
   -4.0102   -1.2610    0.9397 C   0  0  1  0  0  0  0  0  0  0  0  0
    2.2652    1.6781    0.1226 C   0  0  0  0  0  0  0  0  0  0  0  0
    2.1902    0.1114    0.1118 C   0  0  1  0  0  0  0  0  0  0  0  0
   -4.8623   -0.0551    1.2103 C   0  0  1  0  0  0  0  0  0  0  0  0
   -2.5587   -1.2408    1.3304 C   0  0  2  0  0  0  0  0  0  0  0  0
    0.8702   -0.4352   -0.4499 C   0  0  2  0  0  0  0  0  0  0  0  0
   -1.6502   -0.5801    0.2677 C   0  0  2  0  0  0  0  0  0  0  0  0
    3.7192    2.1289    0.4858 C   0  0  2  0  0  0  0  0  0  0  0  0
   -0.1594   -0.5646    0.6895 C   0  0  0  0  0  0  0  0  0  0  0  0
    4.8404    1.3736   -0.2639 C   0  0  1  0  0  0  0  0  0  0  0  0
    4.5543   -0.1421   -0.2729 C   0  0  2  0  0  0  0  0  0  0  0  0
   -6.1238    0.1787    0.4689 C   0  0  1  0  0  0  0  0  0  0  0  0
   -4.4123   -2.2574   -0.0823 C   0  0  0  0  0  0  0  0  0  0  0  0
    1.2788    2.2804    1.1550 C   0  0  0  0  0  0  0  0  0  0  0  0
    1.8729    2.2610   -1.2561 C   0  0  0  0  0  0  0  0  0  0  0  0
    1.1279   -1.7610   -1.1635 C   0  0  0  0  0  0  0  0  0  0  0  0
   -2.0717    0.8666   -0.0404 C   0  0  0  0  0  0  0  0  0  0  0  0
    5.0993    1.9521   -1.6594 C   0  0  0  0  0  0  0  0  0  0  0  0
    5.5180   -0.9431   -1.1436 C   0  0  0  0  0  0  0  0  0  0  0  0
   -7.2500    0.6316    1.3970 C   0  0  0  0  0  0  0  0  0  0  0  0
   -5.9170    1.1800   -0.6701 C   0  0  0  0  0  0  0  0  0  0  0  0
    4.9583    2.8445    2.3493 C   0  0  0  0  0  0  0  0  0  0  0  0
    5.5303   -2.4000   -0.7672 C   0  0  0  0  0  0  0  0  0  0  0  0
   -6.1033    1.0164   -1.9942 C   0  0  0  0  0  0  0  0  0  0  0  0
   -6.5883   -0.3035   -2.5346 C   0  0  0  0  0  0  0  0  0  0  0  0
   -5.8729    2.0638   -3.0463 C   0  0  0  0  0  0  0  0  0  0  0  0
   -4.4293    0.8412    1.6344 H   0  0  0  0  0  0  0  0  0  0  0  0
   -2.4415   -0.6934    2.2744 H   0  0  0  0  0  0  0  0  0  0  0  0
    0.4701    0.2181   -1.2269 H   0  0  0  0  0  0  0  0  0  0  0  0
    3.7958    3.2036    0.2691 H   0  0  0  0  0  0  0  0  0  0  0  0
   -1.7321   -1.1614   -0.6593 H   0  0  0  0  0  0  0  0  0  0  0  0
    0.0507   -1.5124    1.2030 H   0  0  0  0  0  0  0  0  0  0  0  0
   -0.0553    0.1940    1.4666 H   0  0  0  0  0  0  0  0  0  0  0  0
    5.7924    1.4901    0.2644 H   0  0  0  0  0  0  0  0  0  0  0  0
    4.6452   -0.5030    0.7601 H   0  0  0  0  0  0  0  0  0  0  0  0
   -6.4865   -0.7623    0.0583 H   0  0  0  0  0  0  0  0  0  0  0  0
   -3.8420   -3.1883   -0.0133 H   0  0  0  0  0  0  0  0  0  0  0  0
   -4.2533   -1.8540   -1.0872 H   0  0  0  0  0  0  0  0  0  0  0  0
   -5.4607   -2.5607    0.0033 H   0  0  0  0  0  0  0  0  0  0  0  0
    0.2384    2.1988    0.8372 H   0  0  0  0  0  0  0  0  0  0  0  0
    1.3808    1.8356    2.1497 H   0  0  0  0  0  0  0  0  0  0  0  0
    1.4702    3.3550    1.2701 H   0  0  0  0  0  0  0  0  0  0  0  0
    0.7871    2.3153   -1.3893 H   0  0  0  0  0  0  0  0  0  0  0  0
    2.2641    1.6680   -2.0862 H   0  0  0  0  0  0  0  0  0  0  0  0
    2.2400    3.2872   -1.3721 H   0  0  0  0  0  0  0  0  0  0  0  0
    1.6433   -2.4828   -0.5203 H   0  0  0  0  0  0  0  0  0  0  0  0
    0.1820   -2.2227   -1.4672 H   0  0  0  0  0  0  0  0  0  0  0  0
    1.7097   -1.6286   -2.0826 H   0  0  0  0  0  0  0  0  0  0  0  0
   -1.3734    1.3551   -0.7251 H   0  0  0  0  0  0  0  0  0  0  0  0
   -3.0424    0.8911   -0.5400 H   0  0  0  0  0  0  0  0  0  0  0  0
   -2.1319    1.4693    0.8715 H   0  0  0  0  0  0  0  0  0  0  0  0
    5.1191    3.0466   -1.6369 H   0  0  0  0  0  0  0  0  0  0  0  0
    6.0756    1.6259   -2.0349 H   0  0  0  0  0  0  0  0  0  0  0  0
    4.3562    1.6321   -2.3920 H   0  0  0  0  0  0  0  0  0  0  0  0
    6.5406   -0.5728   -1.0085 H   0  0  0  0  0  0  0  0  0  0  0  0
    5.2332   -0.8745   -2.1997 H   0  0  0  0  0  0  0  0  0  0  0  0
    2.2062   -1.3461    1.4313 H   0  0  0  0  0  0  0  0  0  0  0  0
   -1.8552   -2.9805    0.7475 H   0  0  0  0  0  0  0  0  0  0  0  0
   -8.1817    0.7867    0.8418 H   0  0  0  0  0  0  0  0  0  0  0  0
   -7.4422   -0.1156    2.1749 H   0  0  0  0  0  0  0  0  0  0  0  0
   -6.9959    1.5713    1.9010 H   0  0  0  0  0  0  0  0  0  0  0  0
   -5.5716    2.1605   -0.3404 H   0  0  0  0  0  0  0  0  0  0  0  0
    5.9387    2.6502    1.9102 H   0  0  0  0  0  0  0  0  0  0  0  0
    4.6678    3.8856    2.1746 H   0  0  0  0  0  0  0  0  0  0  0  0
    5.0540    2.7075    3.4308 H   0  0  0  0  0  0  0  0  0  0  0  0
   -7.1392   -0.9140   -1.8177 H   0  0  0  0  0  0  0  0  0  0  0  0
   -5.7446   -0.8842   -2.9208 H   0  0  0  0  0  0  0  0  0  0  0  0
   -7.2833   -0.1329   -3.3654 H   0  0  0  0  0  0  0  0  0  0  0  0
   -5.1340    1.7157   -3.7751 H   0  0  0  0  0  0  0  0  0  0  0  0
   -6.8055    2.2921   -3.5719 H   0  0  0  0  0  0  0  0  0  0  0  0
   -5.4982    2.9954   -2.6095 H   0  0  0  0  0  0  0  0  0  0  0  0
    6.4372   -4.0277   -1.3391 H   0  0  0  0  0  0  0  0  0  0  0  0
  1  8  1  0  0  0  0
  1 11  1  0  0  0  0
  2 10  1  0  0  0  0
  2 18  1  0  0  0  0
  3 10  1  0  0  0  0
  3 64  1  0  0  0  0
  4 15  1  0  0  0  0
  4 29  1  0  0  0  0
  5 12  1  0  0  0  0
  5 65  1  0  0  0  0
  6 30  1  0  0  0  0
  6 79  1  0  0  0  0
  7 30  2  0  0  0  0
  8 11  1  0  0  0  0
  8 12  1  0  0  0  0
  8 20  1  0  0  0  0
  9 10  1  0  0  0  0
  9 15  1  0  0  0  0
  9 21  1  0  0  0  0
  9 22  1  0  0  0  0
 10 13  1  0  0  0  0
 11 19  1  0  0  0  0
 11 34  1  0  0  0  0
 12 14  1  0  0  0  0
 12 35  1  0  0  0  0
 13 16  1  0  0  0  0
 13 23  1  0  0  0  0
 13 36  1  0  0  0  0
 14 16  1  0  0  0  0
 14 24  1  0  0  0  0
 14 38  1  0  0  0  0
 15 17  1  0  0  0  0
 15 37  1  0  0  0  0
 16 39  1  0  0  0  0
 16 40  1  0  0  0  0
 17 18  1  0  0  0  0
 17 25  1  0  0  0  0
 17 41  1  0  0  0  0
 18 26  1  0  0  0  0
 18 42  1  0  0  0  0
 19 27  1  0  0  0  0
 19 28  1  0  0  0  0
 19 43  1  0  0  0  0
 20 44  1  0  0  0  0
 20 45  1  0  0  0  0
 20 46  1  0  0  0  0
 21 47  1  0  0  0  0
 21 48  1  0  0  0  0
 21 49  1  0  0  0  0
 22 50  1  0  0  0  0
 22 51  1  0  0  0  0
 22 52  1  0  0  0  0
 23 53  1  0  0  0  0
 23 54  1  0  0  0  0
 23 55  1  0  0  0  0
 24 56  1  0  0  0  0
 24 57  1  0  0  0  0
 24 58  1  0  0  0  0
 25 59  1  0  0  0  0
 25 60  1  0  0  0  0
 25 61  1  0  0  0  0
 26 30  1  0  0  0  0
 26 62  1  0  0  0  0
 26 63  1  0  0  0  0
 27 66  1  0  0  0  0
 27 67  1  0  0  0  0
 27 68  1  0  0  0  0
 28 31  2  0  0  0  0
 28 69  1  0  0  0  0
 29 70  1  0  0  0  0
 29 71  1  0  0  0  0
 29 72  1  0  0  0  0
 31 32  1  0  0  0  0
 31 33  1  0  0  0  0
 32 73  1  0  0  0  0
 32 74  1  0  0  0  0
 32 75  1  0  0  0  0
 33 76  1  0  0  0  0
 33 77  1  0  0  0  0
 33 78  1  0  0  0  0
M  END
> <PUBCHEM_COMPOUND_CID>
52952025

> <PUBCHEM_CONFORMER_RMSD>
1.2

> <PUBCHEM_CONFORMER_DIVERSEORDER>
1
24
26
28
4
22
15
12
16
7
5
18
29
17
6
21
19
13
30
20
11
9
8
23
14
25
10
27
3
2

> <PUBCHEM_MMFF94_PARTIAL_CHARGES>
27
1 -0.3
10 0.56
11 -0.05
12 0.38
15 0.28
18 0.28
19 0.23
2 -0.56
20 0.09
26 0.06
28 -0.29
29 0.28
3 -0.68
30 0.66
31 -0.28
32 0.14
33 0.14
34 0.1
4 -0.56
5 -0.68
6 -0.65
64 0.4
65 0.4
69 0.15
7 -0.57
79 0.5
8 -0.04

> <PUBCHEM_EFFECTIVE_ROTOR_COUNT>
11.8

> <PUBCHEM_PHARMACOPHORE_FEATURES>
16
1 1 acceptor
1 2 acceptor
1 23 hydrophobe
1 24 hydrophobe
1 27 hydrophobe
1 3 acceptor
1 3 donor
1 4 acceptor
1 5 acceptor
1 5 donor
1 6 acceptor
1 7 acceptor
3 31 32 33 hydrophobe
3 6 7 30 anion
3 9 21 22 hydrophobe
6 2 9 10 15 17 18 rings

> <PUBCHEM_HEAVY_ATOM_COUNT>
33

> <PUBCHEM_ATOM_DEF_STEREO_COUNT>
10

> <PUBCHEM_ATOM_UDEF_STEREO_COUNT>
0

> <PUBCHEM_BOND_DEF_STEREO_COUNT>
0

> <PUBCHEM_BOND_UDEF_STEREO_COUNT>
0

> <PUBCHEM_ISOTOPIC_ATOM_COUNT>
0

> <PUBCHEM_COMPONENT_COUNT>
1

> <PUBCHEM_CACTVS_TAUTO_COUNT>
1

> <PUBCHEM_CONFORMER_ID>
0327FBD900000001

> <PUBCHEM_MMFF94_ENERGY>
107.179

> <PUBCHEM_FEATURE_SELFOVERLAP>
81.298

> <PUBCHEM_SHAPE_FINGERPRINT>
10554248 39 18272938210619084062
10674148 151 15791740676999776918
10763959 59 18259988196926818668
12403259 415 17967533463258235391
12596602 18 14562524090353188221
13533116 47 18272377468721769336
13782708 43 18343302539586107247
13878862 14 18271515460180060468
14904525 67 16443350913628962831
15183329 4 17917445227944553913
1577012 14 17203891877159385837
16994733 274 15864370059827892550
19377110 9 12179845000602485215
21033648 29 18187921828481499769
21279426 13 18260832583307635579
21859007 373 18114446882145430677
23081809 10 16988564615102457635
23559900 14 18335708251301364779
23569914 152 17690260626583932943
2838139 119 18131072602502334193
32027 91 18342459214437290682
3882209 13 17397247344550091442
4015057 19 18130785681475352987
4073 2 18190191267768503418
4144715 1 17823717419459283163
4340502 62 10591758754079306340
508706 21 17967807297830940125
5104073 3 18059308659120104955
57816373 69 16486139371356624406
6697151 62 18201152157863052002
6698420 124 18340497686515512041

> <PUBCHEM_SHAPE_MULTIPOLES>
638.04
19.57
3.16
2.3
15.25
0.66
-0.6
-0.55
-5.57
-4.65
-0.12
2.45
-0.92
4.43

> <PUBCHEM_SHAPE_SELFOVERLAP>
1283.189

> <PUBCHEM_SHAPE_VOLUME>
374.9

> <PUBCHEM_COORDINATE_TYPE>
2
5
10

$$$$
